Version 4
SHEET 1 1504 680
WIRE 32 -1056 16 -1056
WIRE 624 -976 496 -976
WIRE -176 -960 -544 -960
WIRE -400 -928 -496 -928
WIRE -272 -928 -400 -928
WIRE -176 -928 -176 -960
WIRE -80 -928 -176 -928
WIRE 16 -912 16 -1056
WIRE 960 -912 832 -912
WIRE 1072 -912 1040 -912
WIRE -496 -880 -496 -928
WIRE -400 -880 -400 -928
WIRE -272 -880 -272 -928
WIRE -80 -880 -272 -880
WIRE 496 -880 496 -976
WIRE 512 -880 496 -880
WIRE 912 -880 912 -928
WIRE -544 -864 -544 -960
WIRE -544 -864 -752 -864
WIRE 624 -864 624 -976
WIRE 624 -864 576 -864
WIRE 672 -864 624 -864
WIRE 704 -864 672 -864
WIRE 832 -864 832 -912
WIRE 832 -864 784 -864
WIRE 880 -864 832 -864
WIRE -752 -848 -752 -864
WIRE -752 -848 -800 -848
WIRE -80 -848 -272 -848
WIRE 224 -848 128 -848
WIRE 240 -848 224 -848
WIRE 384 -848 304 -848
WIRE 512 -848 384 -848
WIRE 1072 -848 1072 -912
WIRE 1072 -848 944 -848
WIRE 1104 -848 1072 -848
WIRE 1152 -848 1104 -848
WIRE 1312 -848 1232 -848
WIRE 1360 -848 1312 -848
WIRE -752 -832 -752 -848
WIRE -544 -832 -752 -832
WIRE -80 -800 -176 -800
WIRE -496 -768 -496 -800
WIRE -400 -768 -400 -800
WIRE -400 -768 -496 -768
WIRE -272 -768 -272 -848
WIRE -272 -768 -400 -768
WIRE 912 -768 912 -816
WIRE -544 -752 -544 -832
WIRE -176 -752 -176 -800
WIRE -176 -752 -544 -752
WIRE 544 -736 544 -832
WIRE 16 -720 16 -816
WIRE 64 -688 64 -832
WIRE 384 -672 384 -768
WIRE 512 -416 384 -416
WIRE -256 -400 -288 -400
WIRE -208 -400 -256 -400
WIRE 112 -400 48 -400
WIRE 176 -400 112 -400
WIRE 224 -400 176 -400
WIRE 272 -400 224 -400
WIRE -544 -336 -544 -400
WIRE -400 -336 -400 -400
WIRE 176 -336 176 -400
WIRE 384 -320 384 -416
WIRE 416 -320 384 -320
WIRE -256 -304 -256 -400
WIRE -208 -304 -256 -304
WIRE 512 -304 512 -416
WIRE 512 -304 480 -304
WIRE 608 -304 512 -304
WIRE 272 -288 272 -320
WIRE 416 -288 272 -288
WIRE 272 -256 272 -288
WIRE -544 -224 -544 -336
WIRE -400 -224 -400 -336
WIRE -208 -208 -256 -208
WIRE 112 -208 112 -400
WIRE 112 -208 48 -208
WIRE 176 -208 176 -272
WIRE -256 -144 -256 -208
WIRE -544 -96 -544 -144
WIRE -400 -96 -400 -144
WIRE -80 -48 -80 -144
WIRE -256 -32 -256 -80
FLAG -400 -96 0
FLAG -400 -336 VCC
FLAG 448 -272 0
FLAG -80 -48 0
FLAG -288 -400 VCC
FLAG -256 -32 0
FLAG 176 -208 0
FLAG 272 -176 0
FLAG 224 -400 Vout
FLAG 608 -304 Vref
FLAG 16 -720 0
FLAG 224 -848 TP1
FLAG -880 -848 0
FLAG 544 -736 0
FLAG 912 -768 0
FLAG 672 -864 TP2
FLAG 1104 -848 TP3
FLAG 384 -672 Vref
FLAG 880 -832 Vref
FLAG 1312 -784 Vref
FLAG 448 -336 Vout
FLAG 64 -688 Vref
FLAG -544 -96 0
FLAG -544 -336 3.3
FLAG 16 -1056 3.3
FLAG 544 -896 3.3
FLAG 912 -928 3.3
FLAG 1360 -848 TP4
SYMBOL res 256 -272 R0
SYMATTR InstName R1
SYMATTR Value 1k
SYMBOL res 256 -416 R0
SYMATTR InstName R2
SYMATTR Value 1k
SYMBOL voltage -400 -240 R0
WINDOW 123 0 0 Left 0
WINDOW 39 0 0 Left 0
SYMATTR InstName V1
SYMATTR Value 3.7V
SYMBOL OpAmps\\AD8538 448 -368 R0
WINDOW 3 20 98 Left 2
SYMATTR InstName U1
SYMBOL PowerProducts\\ADP7118-3.3 -80 -304 R0
SYMATTR InstName U2
SYMBOL cap -272 -144 R0
SYMATTR InstName C1
SYMATTR Value 1nF
SYMBOL cap 160 -336 R0
SYMATTR InstName C2
SYMATTR Value 2.2µF
SYMBOL voltage -784 -848 R90
WINDOW 0 -32 56 VBottom 2
WINDOW 3 32 56 VTop 2
WINDOW 123 -4 56 VBottom 2
WINDOW 39 0 0 Left 0
SYMATTR InstName V2
SYMATTR Value SINE(0 0.01 100)
SYMATTR Value2 AC 0.01
SYMBOL res -416 -896 R0
SYMATTR InstName R3
SYMATTR Value 4.7K
SYMBOL res -512 -896 R0
SYMATTR InstName R4
SYMATTR Value 49.8K
SYMBOL res 368 -864 R0
SYMATTR InstName R5
SYMATTR Value 51k
SYMBOL cap 304 -864 R90
WINDOW 0 0 32 VBottom 2
WINDOW 3 -12 -14 VTop 2
SYMATTR InstName C3
SYMATTR Value 0.47µ
SYMBOL res 1248 -864 R90
WINDOW 0 0 56 VBottom 2
WINDOW 3 45 56 VTop 2
SYMATTR InstName R6
SYMATTR Value 6200
SYMBOL cap 1296 -848 R0
WINDOW 0 17 8 Left 2
WINDOW 3 19 62 Left 2
SYMATTR InstName C4
SYMATTR Value 0.1µ
SYMBOL OpAmps\\AD8538 544 -928 R0
SYMATTR InstName U4
SYMBOL OpAmps\\AD8538 912 -912 R0
SYMATTR InstName U5
SYMBOL res 800 -880 R90
WINDOW 0 0 56 VBottom 2
WINDOW 3 32 56 VTop 2
SYMATTR InstName R7
SYMATTR Value 250
SYMBOL res 1056 -928 R90
WINDOW 0 0 56 VBottom 2
WINDOW 3 -11 -16 VTop 2
SYMATTR InstName R8
SYMATTR Value 75000
SYMBOL voltage -544 -240 R0
WINDOW 123 0 0 Left 0
WINDOW 39 0 0 Left 0
SYMATTR InstName V3
SYMATTR Value 3.3V
SYMBOL AutoGenerated\\AD623v2 48 -880 R0
SYMATTR InstName U6
TEXT -592 -8 Left 2 !.tran 0 78.125m 0 1u
TEXT -816 -712 Left 2 !.opt reltol=0.01\n.opt abstol=1e-12\n.opt vntol=1e-6\n.opt gmin=1e-12
