Version 4
SHEET 1 1012 680
WIRE -48 192 -176 192
WIRE -816 208 -848 208
WIRE -768 208 -816 208
WIRE -448 208 -512 208
WIRE -384 208 -448 208
WIRE -336 208 -384 208
WIRE -288 208 -336 208
WIRE -960 272 -960 208
WIRE -384 272 -384 208
WIRE -176 288 -176 192
WIRE -144 288 -176 288
WIRE -816 304 -816 208
WIRE -768 304 -816 304
WIRE -48 304 -48 192
WIRE -48 304 -80 304
WIRE 48 304 -48 304
WIRE -288 320 -288 288
WIRE -144 320 -288 320
WIRE -288 352 -288 320
WIRE -960 384 -960 272
WIRE -768 400 -816 400
WIRE -448 400 -448 208
WIRE -448 400 -512 400
WIRE -384 400 -384 336
WIRE -816 464 -816 400
WIRE -960 512 -960 464
WIRE -640 560 -640 464
WIRE -816 576 -816 528
FLAG -960 512 0
FLAG -960 272 VCC
FLAG -112 272 VCC
FLAG -112 336 0
FLAG -640 560 0
FLAG -848 208 VCC
FLAG -816 576 0
FLAG -384 400 0
FLAG -288 432 0
FLAG -336 208 Vout
FLAG 48 304 Vref
SYMBOL res -304 336 R0
SYMATTR InstName R1
SYMATTR Value 1k
SYMBOL res -304 192 R0
SYMATTR InstName R2
SYMATTR Value 1k
SYMBOL voltage -960 368 R0
WINDOW 123 0 0 Left 0
WINDOW 39 0 0 Left 0
SYMATTR InstName V1
SYMATTR Value 3.7V
SYMBOL OpAmps\\AD8538 -112 240 R0
WINDOW 3 20 98 Left 2
SYMATTR InstName U2
SYMBOL PowerProducts\\ADP7118-3.3 -640 304 R0
SYMATTR InstName U5
SYMBOL cap -832 464 R0
SYMATTR InstName C3
SYMATTR Value 1nF
SYMBOL cap -400 272 R0
SYMATTR InstName C4
SYMATTR Value 2.2µF
TEXT -1004 600 Left 2 !.tran 0 100m 1m 0.1
