Version 4
SHEET 1 1312 680
WIRE 112 -480 -32 -480
WIRE 112 -448 48 -448
WIRE 112 -416 80 -416
WIRE 400 -416 240 -416
WIRE 288 -384 240 -384
WIRE -16 -320 -112 -320
WIRE 80 -320 80 -416
WIRE 80 -320 -16 -320
WIRE -112 -240 -112 -320
WIRE -16 -240 -16 -320
WIRE -112 -80 -112 -160
WIRE -16 -80 -16 -160
WIRE -16 -80 -112 -80
WIRE 112 -80 112 -384
WIRE 112 -80 -16 -80
WIRE 624 16 496 16
WIRE -144 32 -176 32
WIRE -96 32 -144 32
WIRE 224 32 160 32
WIRE 288 32 224 32
WIRE 336 32 288 32
WIRE 384 32 336 32
WIRE -288 96 -288 32
WIRE 288 96 288 32
WIRE 496 112 496 16
WIRE 528 112 496 112
WIRE -144 128 -144 32
WIRE -96 128 -144 128
WIRE 624 128 624 16
WIRE 624 128 592 128
WIRE 720 128 624 128
WIRE 384 144 384 112
WIRE 528 144 384 144
WIRE 384 176 384 144
WIRE -288 208 -288 96
WIRE -96 224 -144 224
WIRE 224 224 224 32
WIRE 224 224 160 224
WIRE 288 224 288 160
WIRE -144 288 -144 224
WIRE -288 336 -288 288
WIRE 32 384 32 288
WIRE -144 400 -144 352
FLAG -288 336 0
FLAG -288 96 VCC
FLAG 560 96 VCC
FLAG 560 160 0
FLAG 32 384 0
FLAG -176 32 VCC
FLAG -144 400 0
FLAG 288 224 0
FLAG 384 256 0
FLAG 336 32 Vout
FLAG 720 128 Vref
FLAG 240 -480 VCC
FLAG 240 -448 0
FLAG 288 -384 Vref
FLAG 48 -448 0
FLAG 400 -416 WYJ
IOPIN 400 -416 In
FLAG -112 -480 0
SYMBOL res 368 160 R0
SYMATTR InstName R1
SYMATTR Value 1k
SYMBOL res 368 16 R0
SYMATTR InstName R2
SYMATTR Value 1k
SYMBOL voltage -288 192 R0
WINDOW 123 0 0 Left 0
WINDOW 39 0 0 Left 0
SYMATTR InstName V1
SYMATTR Value 3.7V
SYMBOL OpAmps\\AD8538 560 64 R0
WINDOW 3 20 98 Left 2
SYMATTR InstName U1
SYMBOL PowerProducts\\ADP7118-3.3 32 128 R0
SYMATTR InstName U2
SYMBOL cap -160 288 R0
SYMATTR InstName C1
SYMATTR Value 1nF
SYMBOL cap 272 96 R0
SYMATTR InstName C2
SYMATTR Value 2.2µF
SYMBOL voltage -16 -480 R90
WINDOW 0 -32 56 VBottom 2
WINDOW 3 32 56 VTop 2
WINDOW 123 -4 56 VBottom 2
WINDOW 39 0 0 Left 0
SYMATTR InstName V2
SYMATTR Value SINE(0 0.000010 128)
SYMATTR Value2 AC 0.000010
SYMBOL AutoGenerated\\AD623 176 -432 R0
SYMATTR InstName U3
SYMBOL res -32 -256 R0
SYMATTR InstName R3
SYMATTR Value 4.7K
SYMBOL res -128 -256 R0
SYMATTR InstName R4
SYMATTR Value 49.8K
TEXT -332 424 Left 2 !.tran 0 100m 1m 0.1
