Version 4
SHEET 1 2004 680
WIRE 176 -624 160 -624
WIRE 672 -544 544 -544
WIRE -32 -528 -400 -528
WIRE -256 -496 -352 -496
WIRE -128 -496 -256 -496
WIRE -32 -496 -32 -528
WIRE 64 -496 -32 -496
WIRE 160 -480 160 -624
WIRE 1008 -480 880 -480
WIRE 1120 -480 1088 -480
WIRE -352 -448 -352 -496
WIRE -256 -448 -256 -496
WIRE -128 -448 -128 -496
WIRE 64 -448 -128 -448
WIRE 544 -448 544 -544
WIRE 560 -448 544 -448
WIRE 960 -448 960 -496
WIRE -400 -432 -400 -528
WIRE -400 -432 -544 -432
WIRE 672 -432 672 -544
WIRE 672 -432 624 -432
WIRE 720 -432 672 -432
WIRE 752 -432 720 -432
WIRE 880 -432 880 -480
WIRE 880 -432 832 -432
WIRE 928 -432 880 -432
WIRE 64 -416 -128 -416
WIRE 288 -416 272 -416
WIRE 336 -416 288 -416
WIRE 464 -416 400 -416
WIRE 560 -416 464 -416
WIRE 1120 -416 1120 -480
WIRE 1120 -416 992 -416
WIRE 1152 -416 1120 -416
WIRE 1200 -416 1152 -416
WIRE 1360 -416 1280 -416
WIRE 1408 -416 1360 -416
WIRE -400 -400 -464 -400
WIRE 64 -368 -32 -368
WIRE -352 -336 -352 -368
WIRE -256 -336 -256 -368
WIRE -256 -336 -352 -336
WIRE -128 -336 -128 -416
WIRE -128 -336 -256 -336
WIRE 960 -336 960 -384
WIRE -400 -320 -400 -400
WIRE -32 -320 -32 -368
WIRE -32 -320 -400 -320
WIRE 592 -304 592 -400
WIRE 160 -288 160 -384
WIRE 208 -256 208 -400
WIRE 464 -240 464 -336
WIRE 624 -128 496 -128
WIRE -144 -112 -176 -112
WIRE -96 -112 -144 -112
WIRE 224 -112 160 -112
WIRE 288 -112 224 -112
WIRE 336 -112 288 -112
WIRE 384 -112 336 -112
WIRE -432 -48 -432 -112
WIRE -288 -48 -288 -112
WIRE 288 -48 288 -112
WIRE 496 -32 496 -128
WIRE 528 -32 496 -32
WIRE -144 -16 -144 -112
WIRE -96 -16 -144 -16
WIRE 624 -16 624 -128
WIRE 624 -16 592 -16
WIRE 720 -16 624 -16
WIRE 384 0 384 -32
WIRE 528 0 384 0
WIRE 384 32 384 0
WIRE -432 64 -432 -48
WIRE -288 64 -288 -48
WIRE -96 80 -144 80
WIRE 224 80 224 -112
WIRE 224 80 160 80
WIRE 288 80 288 16
WIRE -144 144 -144 80
WIRE -432 192 -432 144
WIRE -288 192 -288 144
WIRE 32 240 32 144
WIRE -144 256 -144 208
FLAG -288 192 0
FLAG -288 -48 VCC
FLAG 560 16 0
FLAG 32 240 0
FLAG -176 -112 VCC
FLAG -144 256 0
FLAG 288 80 0
FLAG 384 112 0
FLAG 336 -112 Vout
FLAG 720 -16 Vref
FLAG -464 -400 0
FLAG 288 -416 TP1
FLAG 592 -304 0
FLAG 960 -336 0
FLAG 720 -432 TP2
FLAG 1152 -416 TP3
FLAG 464 -240 Vref
FLAG 928 -400 Vref
FLAG 1360 -352 Vref
FLAG 560 -48 Vout
FLAG -432 192 0
FLAG -432 -48 3.3
FLAG 592 -464 3.3
FLAG 960 -496 3.3
FLAG 1408 -416 TP4
FLAG 160 -288 0
FLAG 208 -256 Vref
FLAG 160 -624 3.3
FLAG -624 -432 0
DATAFLAG 1424 -416 ""
SYMBOL res 368 16 R0
SYMATTR InstName R1
SYMATTR Value 1k
SYMBOL res 368 -128 R0
SYMATTR InstName R2
SYMATTR Value 1k
SYMBOL voltage -288 48 R0
WINDOW 123 0 0 Left 0
WINDOW 39 0 0 Left 0
SYMATTR InstName V1
SYMATTR Value 3.7V
SYMBOL OpAmps\\AD8538 560 -80 R0
WINDOW 3 20 98 Left 2
SYMATTR InstName U1
SYMBOL PowerProducts\\ADP7118-3.3 32 -16 R0
SYMATTR InstName U2
SYMBOL cap -160 144 R0
SYMATTR InstName C1
SYMATTR Value 1nF
SYMBOL cap 272 -48 R0
SYMATTR InstName C2
SYMATTR Value 2.2µF
SYMBOL res 448 -432 R0
SYMATTR InstName R5
SYMATTR Value 51k
SYMBOL cap 400 -432 R90
WINDOW 0 0 32 VBottom 2
WINDOW 3 -12 -14 VTop 2
SYMATTR InstName C3
SYMATTR Value 0.47µ
SYMBOL res 1296 -432 R90
WINDOW 0 0 56 VBottom 2
WINDOW 3 45 56 VTop 2
SYMATTR InstName R6
SYMATTR Value 6200
SYMBOL cap 1344 -416 R0
WINDOW 0 17 8 Left 2
WINDOW 3 19 62 Left 2
SYMATTR InstName C4
SYMATTR Value 0.1µ
SYMBOL OpAmps\\AD8538 592 -496 R0
SYMATTR InstName U4
SYMBOL OpAmps\\AD8538 960 -480 R0
SYMATTR InstName U5
SYMBOL res 848 -448 R90
WINDOW 0 0 56 VBottom 2
WINDOW 3 32 56 VTop 2
SYMATTR InstName R7
SYMATTR Value 250
SYMBOL res 1104 -496 R90
WINDOW 0 0 56 VBottom 2
WINDOW 3 19 -3 VTop 2
SYMATTR InstName R8
SYMATTR Value 75000
SYMBOL voltage -432 48 R0
WINDOW 123 0 0 Left 0
WINDOW 39 0 0 Left 0
SYMATTR InstName V3
SYMATTR Value 3.3V
SYMBOL res -272 -464 R0
SYMATTR InstName R9
SYMATTR Value 4.7K
SYMBOL res -368 -464 R0
SYMATTR InstName R10
SYMATTR Value 49.8K
SYMBOL AutoGenerated\\AD623v2 192 -448 R0
SYMATTR InstName U6
SYMBOL voltage -528 -432 R90
WINDOW 0 -32 56 VBottom 2
WINDOW 3 32 56 VTop 2
WINDOW 123 -4 56 VBottom 2
WINDOW 39 0 0 Left 0
SYMATTR InstName V4
SYMATTR Value SINE(0 0.000010 128)
SYMATTR Value2 AC 0.000010
TEXT -480 280 Left 2 !.tran 0 15m 0 1u
TEXT -856 -240 Left 2 !.opt reltol=0.01\n.opt abstol=1e-12\n.opt vntol=1e-6\n.opt gmin=1e-12
