Version 4
SHEET 1 1512 680
WIRE 224 -624 208 -624
WIRE 672 -544 544 -544
WIRE 16 -528 -352 -528
WIRE -208 -496 -304 -496
WIRE -80 -496 -208 -496
WIRE 16 -496 16 -528
WIRE 112 -496 16 -496
WIRE 208 -480 208 -624
WIRE 1008 -480 880 -480
WIRE 1120 -480 1088 -480
WIRE -304 -448 -304 -496
WIRE -208 -448 -208 -496
WIRE -80 -448 -80 -496
WIRE 112 -448 -80 -448
WIRE 544 -448 544 -544
WIRE 560 -448 544 -448
WIRE 960 -448 960 -512
WIRE 672 -432 672 -544
WIRE 672 -432 624 -432
WIRE 720 -432 672 -432
WIRE 752 -432 720 -432
WIRE 880 -432 880 -480
WIRE 880 -432 832 -432
WIRE 928 -432 880 -432
WIRE 112 -416 -80 -416
WIRE 400 -416 384 -416
WIRE 464 -416 400 -416
WIRE 560 -416 464 -416
WIRE 1120 -416 1120 -480
WIRE 1120 -416 992 -416
WIRE 1152 -416 1120 -416
WIRE 1200 -416 1152 -416
WIRE 1360 -416 1280 -416
WIRE 1408 -416 1360 -416
WIRE 112 -368 16 -368
WIRE -304 -336 -304 -368
WIRE -208 -336 -208 -368
WIRE -208 -336 -304 -336
WIRE -80 -336 -80 -416
WIRE -80 -336 -208 -336
WIRE 960 -336 960 -384
WIRE 16 -320 16 -368
WIRE 16 -320 -352 -320
WIRE 592 -304 592 -400
WIRE 208 -288 208 -384
WIRE 256 -256 256 -400
WIRE 464 -240 464 -336
WIRE 624 16 496 16
WIRE -144 32 -176 32
WIRE -96 32 -144 32
WIRE 224 32 160 32
WIRE 288 32 224 32
WIRE 336 32 288 32
WIRE 384 32 336 32
WIRE -400 96 -400 32
WIRE -288 96 -288 32
WIRE 288 96 288 32
WIRE 496 112 496 16
WIRE 528 112 496 112
WIRE -144 128 -144 32
WIRE -96 128 -144 128
WIRE 624 128 624 16
WIRE 624 128 592 128
WIRE 720 128 624 128
WIRE 384 144 384 112
WIRE 528 144 384 144
WIRE 384 176 384 144
WIRE -400 208 -400 96
WIRE -288 208 -288 96
WIRE -96 224 -144 224
WIRE 224 224 224 32
WIRE 224 224 160 224
WIRE 288 224 288 160
WIRE -144 288 -144 224
WIRE -400 336 -400 288
WIRE -288 336 -288 288
WIRE 32 384 32 288
WIRE -144 400 -144 352
FLAG -288 336 0
FLAG -288 96 VCC
FLAG 560 96 VCC
FLAG 560 160 0
FLAG 32 384 0
FLAG -176 32 VCC
FLAG -144 400 0
FLAG 288 224 0
FLAG 384 256 0
FLAG 336 32 Vout
FLAG 720 128 Vref
FLAG 400 -416 WYJ
IOPIN 400 -416 In
FLAG 592 -304 0
FLAG 960 -336 0
FLAG 1408 -416 TP4
IOPIN 1408 -416 Out
FLAG 720 -432 TP2
FLAG 1152 -416 TP3
FLAG 464 -240 Vref
FLAG 928 -400 Vref
FLAG 1360 -352 Vref
FLAG -400 336 0
FLAG -400 96 3.3
FLAG 592 -464 3.3
FLAG 960 -512 3.3
FLAG 208 -288 0
FLAG 256 -256 Vref
FLAG 208 -624 3.3
FLAG -352 -320 0
FLAG -432 -528 0
SYMBOL res 368 160 R0
SYMATTR InstName R1
SYMATTR Value 1k
SYMBOL res 368 16 R0
SYMATTR InstName R2
SYMATTR Value 1k
SYMBOL voltage -288 192 R0
WINDOW 123 0 0 Left 0
WINDOW 39 0 0 Left 0
SYMATTR InstName V1
SYMATTR Value 3.7V
SYMBOL OpAmps\\AD8538 560 64 R0
WINDOW 3 20 98 Left 2
SYMATTR InstName U1
SYMBOL PowerProducts\\ADP7118-3.3 32 128 R0
SYMATTR InstName U2
SYMBOL cap -160 288 R0
SYMATTR InstName C1
SYMATTR Value 1nF
SYMBOL cap 272 96 R0
SYMATTR InstName C2
SYMATTR Value 2.2µF
SYMBOL res 448 -432 R0
SYMATTR InstName R5
SYMATTR Value 51k
SYMBOL res 1296 -432 R90
WINDOW 0 0 56 VBottom 2
WINDOW 3 45 56 VTop 2
SYMATTR InstName R6
SYMATTR Value 6200
SYMBOL cap 1344 -416 R0
WINDOW 0 17 8 Left 2
WINDOW 3 19 62 Left 2
SYMATTR InstName C3
SYMATTR Value 0.1µ
SYMBOL OpAmps\\AD8538 592 -496 R0
SYMATTR InstName U4
SYMBOL OpAmps\\AD8538 960 -480 R0
SYMATTR InstName U5
SYMBOL res 848 -448 R90
WINDOW 0 0 56 VBottom 2
WINDOW 3 32 56 VTop 2
SYMATTR InstName R7
SYMATTR Value 250
SYMBOL res 1104 -496 R90
WINDOW 0 0 56 VBottom 2
WINDOW 3 32 56 VTop 2
SYMATTR InstName R8
SYMATTR Value 40k
SYMBOL voltage -400 192 R0
WINDOW 123 0 0 Left 0
WINDOW 39 0 0 Left 0
SYMATTR InstName V3
SYMATTR Value 3.3V
SYMBOL cap 384 -432 R90
WINDOW 0 0 32 VBottom 2
WINDOW 3 32 32 VTop 2
SYMATTR InstName C4
SYMATTR Value 0.47µ
SYMBOL res -224 -464 R0
SYMATTR InstName R9
SYMATTR Value 4.7K
SYMBOL res -320 -464 R0
SYMATTR InstName R10
SYMATTR Value 49.8K
SYMBOL AutoGenerated\\AD623v2 240 -448 R0
SYMATTR InstName U6
SYMBOL voltage -336 -528 R90
WINDOW 0 -32 56 VBottom 2
WINDOW 3 32 56 VTop 2
WINDOW 123 -4 56 VBottom 2
WINDOW 39 0 0 Left 0
SYMATTR InstName V2
SYMATTR Value SINE(0 0.000010 128)
SYMATTR Value2 AC 0.000010
TEXT -624 -280 Left 2 !.opt reltol=0.01\n.opt abstol=1e-12\n.opt vntol=1e-6\n.opt gmin=1e-12
TEXT -626 424 Left 2 !.ac dec 20 1 10k
